pcf
* control data
restart estimation
     4650     840       1       0       2
   1     2 single point   1   0   0
2.000000e+001  -3.000000e+000  3.000000e-001  1.000000e-002  7 999 lamforgive derforgive
1.000000e+001  1.000000e+001  1.000000e-003
1.000000e-001 1 noaui
50  1.000000e-002  3  3  1.000000e-002  3
0  0  0   PARSAVEITN
* singular value decomposition
1
4650  5e-7
1
* parameter groups
sis       relative 0.05  0.0  switch  2.0 parabolic
* parameter data
ppt1	none	relative	-28.3	-31	-25	sis	1	0	1
ppt2	none	relative	-28.3	-31	-25	sis	1	0	1
ppt3	none	relative	-28.3	-31	-25	sis	1	0	1
ppt4	none	relative	-28.3	-31	-25	sis	1	0	1
ppt5	none	relative	-28.3	-31	-25	sis	1	0	1
ppt6	none	relative	-28.3	-31	-25	sis	1	0	1
ppt7	none	relative	-28.3	-31	-25	sis	1	0	1
ppt8	none	relative	-28.3	-31	-25	sis	1	0	1
ppt9	none	relative	-28.3	-31	-25	sis	1	0	1
ppt10	none	relative	-28.3	-31	-25	sis	1	0	1
ppt11	none	relative	-28.3	-31	-25	sis	1	0	1
ppt12	none	relative	-28.3	-31	-25	sis	1	0	1
ppt13	none	relative	-28.3	-31	-25	sis	1	0	1
ppt14	none	relative	-28.3	-31	-25	sis	1	0	1
ppt15	none	relative	-28.3	-31	-25	sis	1	0	1
ppt16	none	relative	-28.3	-31	-25	sis	1	0	1
ppt17	none	relative	-28.3	-31	-25	sis	1	0	1
ppt18	none	relative	-28.3	-31	-25	sis	1	0	1
ppt19	none	relative	-28.3	-31	-25	sis	1	0	1
ppt20	none	relative	-28.3	-31	-25	sis	1	0	1
ppt21	none	relative	-28.3	-31	-25	sis	1	0	1
ppt22	none	relative	-28.3	-31	-25	sis	1	0	1
ppt23	none	relative	-28.3	-31	-25	sis	1	0	1
ppt24	none	relative	-28.3	-31	-25	sis	1	0	1
ppt25	none	relative	-28.3	-31	-25	sis	1	0	1
ppt26	none	relative	-28.3	-31	-25	sis	1	0	1
ppt27	none	relative	-28.3	-31	-25	sis	1	0	1
ppt28	none	relative	-28.3	-31	-25	sis	1	0	1
ppt29	none	relative	-28.3	-31	-25	sis	1	0	1
ppt30	none	relative	-28.3	-31	-25	sis	1	0	1
ppt31	none	relative	-28.3	-31	-25	sis	1	0	1
ppt32	none	relative	-28.3	-31	-25	sis	1	0	1
ppt33	none	relative	-28.3	-31	-25	sis	1	0	1
ppt34	none	relative	-28.3	-31	-25	sis	1	0	1
ppt35	none	relative	-28.3	-31	-25	sis	1	0	1
ppt36	none	relative	-28.3	-31	-25	sis	1	0	1
ppt37	none	relative	-28.3	-31	-25	sis	1	0	1
ppt38	none	relative	-28.3	-31	-25	sis	1	0	1
ppt39	none	relative	-28.3	-31	-25	sis	1	0	1
ppt40	none	relative	-28.3	-31	-25	sis	1	0	1
ppt41	none	relative	-28.3	-31	-25	sis	1	0	1
ppt42	none	relative	-28.3	-31	-25	sis	1	0	1
ppt43	none	relative	-28.3	-31	-25	sis	1	0	1
ppt44	none	relative	-28.3	-31	-25	sis	1	0	1
ppt45	none	relative	-28.3	-31	-25	sis	1	0	1
ppt46	none	relative	-28.3	-31	-25	sis	1	0	1
ppt47	none	relative	-28.3	-31	-25	sis	1	0	1
ppt48	none	relative	-28.3	-31	-25	sis	1	0	1
ppt49	none	relative	-28.3	-31	-25	sis	1	0	1
ppt50	none	relative	-28.3	-31	-25	sis	1	0	1
ppt51	none	relative	-28.3	-31	-25	sis	1	0	1
ppt52	none	relative	-28.3	-31	-25	sis	1	0	1
ppt53	none	relative	-28.3	-31	-25	sis	1	0	1
ppt54	none	relative	-28.3	-31	-25	sis	1	0	1
ppt55	none	relative	-28.3	-31	-25	sis	1	0	1
ppt56	none	relative	-28.3	-31	-25	sis	1	0	1
ppt57	none	relative	-28.3	-31	-25	sis	1	0	1
ppt58	none	relative	-28.3	-31	-25	sis	1	0	1
ppt59	none	relative	-28.3	-31	-25	sis	1	0	1
ppt60	none	relative	-28.3	-31	-25	sis	1	0	1
ppt61	none	relative	-28.3	-31	-25	sis	1	0	1
ppt62	none	relative	-28.3	-31	-25	sis	1	0	1
ppt63	none	relative	-28.3	-31	-25	sis	1	0	1
ppt64	none	relative	-28.3	-31	-25	sis	1	0	1
ppt65	none	relative	-28.3	-31	-25	sis	1	0	1
ppt66	none	relative	-28.3	-31	-25	sis	1	0	1
ppt67	none	relative	-28.3	-31	-25	sis	1	0	1
ppt68	none	relative	-28.3	-31	-25	sis	1	0	1
ppt69	none	relative	-28.3	-31	-25	sis	1	0	1
ppt70	none	relative	-28.3	-31	-25	sis	1	0	1
ppt71	none	relative	-28.3	-31	-25	sis	1	0	1
ppt72	none	relative	-28.3	-31	-25	sis	1	0	1
ppt73	none	relative	-28.3	-31	-25	sis	1	0	1
ppt74	none	relative	-28.3	-31	-25	sis	1	0	1
ppt75	none	relative	-28.3	-31	-25	sis	1	0	1
ppt76	none	relative	-28.3	-31	-25	sis	1	0	1
ppt77	none	relative	-28.3	-31	-25	sis	1	0	1
ppt78	none	relative	-28.3	-31	-25	sis	1	0	1
ppt79	none	relative	-28.3	-31	-25	sis	1	0	1
ppt80	none	relative	-28.3	-31	-25	sis	1	0	1
ppt81	none	relative	-28.3	-31	-25	sis	1	0	1
ppt82	none	relative	-28.3	-31	-25	sis	1	0	1
ppt83	none	relative	-28.3	-31	-25	sis	1	0	1
ppt84	none	relative	-28.3	-31	-25	sis	1	0	1
ppt85	none	relative	-28.3	-31	-25	sis	1	0	1
ppt86	none	relative	-28.3	-31	-25	sis	1	0	1
ppt87	none	relative	-28.3	-31	-25	sis	1	0	1
ppt88	none	relative	-28.3	-31	-25	sis	1	0	1
ppt89	none	relative	-28.3	-31	-25	sis	1	0	1
ppt90	none	relative	-28.3	-31	-25	sis	1	0	1
ppt91	none	relative	-28.3	-31	-25	sis	1	0	1
ppt92	none	relative	-28.3	-31	-25	sis	1	0	1
ppt93	none	relative	-28.3	-31	-25	sis	1	0	1
ppt94	none	relative	-28.3	-31	-25	sis	1	0	1
ppt95	none	relative	-28.3	-31	-25	sis	1	0	1
ppt96	none	relative	-28.3	-31	-25	sis	1	0	1
ppt97	none	relative	-28.3	-31	-25	sis	1	0	1
ppt98	none	relative	-28.3	-31	-25	sis	1	0	1
ppt99	none	relative	-28.3	-31	-25	sis	1	0	1
ppt100	none	relative	-28.3	-31	-25	sis	1	0	1
ppt101	none	relative	-28.3	-31	-25	sis	1	0	1
ppt102	none	relative	-28.3	-31	-25	sis	1	0	1
ppt103	none	relative	-28.3	-31	-25	sis	1	0	1
ppt104	none	relative	-28.3	-31	-25	sis	1	0	1
ppt105	none	relative	-28.3	-31	-25	sis	1	0	1
ppt106	none	relative	-28.3	-31	-25	sis	1	0	1
ppt107	none	relative	-28.3	-31	-25	sis	1	0	1
ppt108	none	relative	-28.3	-31	-25	sis	1	0	1
ppt109	none	relative	-28.3	-31	-25	sis	1	0	1
ppt110	none	relative	-28.3	-31	-25	sis	1	0	1
ppt111	none	relative	-28.3	-31	-25	sis	1	0	1
ppt112	none	relative	-28.3	-31	-25	sis	1	0	1
ppt113	none	relative	-28.3	-31	-25	sis	1	0	1
ppt114	none	relative	-28.3	-31	-25	sis	1	0	1
ppt115	none	relative	-28.3	-31	-25	sis	1	0	1
ppt116	none	relative	-28.3	-31	-25	sis	1	0	1
ppt117	none	relative	-28.3	-31	-25	sis	1	0	1
ppt118	none	relative	-28.3	-31	-25	sis	1	0	1
ppt119	none	relative	-28.3	-31	-25	sis	1	0	1
ppt120	none	relative	-28.3	-31	-25	sis	1	0	1
ppt121	none	relative	-28.3	-31	-25	sis	1	0	1
ppt122	none	relative	-28.3	-31	-25	sis	1	0	1
ppt123	none	relative	-28.3	-31	-25	sis	1	0	1
ppt124	none	relative	-28.3	-31	-25	sis	1	0	1
ppt125	none	relative	-28.3	-31	-25	sis	1	0	1
ppt126	none	relative	-28.3	-31	-25	sis	1	0	1
ppt127	none	relative	-28.3	-31	-25	sis	1	0	1
ppt128	none	relative	-28.3	-31	-25	sis	1	0	1
ppt129	none	relative	-28.3	-31	-25	sis	1	0	1
ppt130	none	relative	-28.3	-31	-25	sis	1	0	1
ppt131	none	relative	-28.3	-31	-25	sis	1	0	1
ppt132	none	relative	-28.3	-31	-25	sis	1	0	1
ppt133	none	relative	-28.3	-31	-25	sis	1	0	1
ppt134	none	relative	-28.3	-31	-25	sis	1	0	1
ppt135	none	relative	-28.3	-31	-25	sis	1	0	1
ppt136	none	relative	-28.3	-31	-25	sis	1	0	1
ppt137	none	relative	-28.3	-31	-25	sis	1	0	1
ppt138	none	relative	-28.3	-31	-25	sis	1	0	1
ppt139	none	relative	-28.3	-31	-25	sis	1	0	1
ppt140	none	relative	-28.3	-31	-25	sis	1	0	1
ppt141	none	relative	-28.3	-31	-25	sis	1	0	1
ppt142	none	relative	-28.3	-31	-25	sis	1	0	1
ppt143	none	relative	-28.3	-31	-25	sis	1	0	1
ppt144	none	relative	-28.3	-31	-25	sis	1	0	1
ppt145	none	relative	-28.3	-31	-25	sis	1	0	1
ppt146	none	relative	-28.3	-31	-25	sis	1	0	1
ppt147	none	relative	-28.3	-31	-25	sis	1	0	1
ppt148	none	relative	-28.3	-31	-25	sis	1	0	1
ppt149	none	relative	-28.3	-31	-25	sis	1	0	1
ppt150	none	relative	-28.3	-31	-25	sis	1	0	1
ppt151	none	relative	-28.3	-31	-25	sis	1	0	1
ppt152	none	relative	-28.3	-31	-25	sis	1	0	1
ppt153	none	relative	-28.3	-31	-25	sis	1	0	1
ppt154	none	relative	-28.3	-31	-25	sis	1	0	1
ppt155	none	relative	-28.3	-31	-25	sis	1	0	1
ppt156	none	relative	-28.3	-31	-25	sis	1	0	1
ppt157	none	relative	-28.3	-31	-25	sis	1	0	1
ppt158	none	relative	-28.3	-31	-25	sis	1	0	1
ppt159	none	relative	-28.3	-31	-25	sis	1	0	1
ppt160	none	relative	-28.3	-31	-25	sis	1	0	1
ppt161	none	relative	-28.3	-31	-25	sis	1	0	1
ppt162	none	relative	-28.3	-31	-25	sis	1	0	1
ppt163	none	relative	-28.3	-31	-25	sis	1	0	1
ppt164	none	relative	-28.3	-31	-25	sis	1	0	1
ppt165	none	relative	-28.3	-31	-25	sis	1	0	1
ppt166	none	relative	-28.3	-31	-25	sis	1	0	1
ppt167	none	relative	-28.3	-31	-25	sis	1	0	1
ppt168	none	relative	-28.3	-31	-25	sis	1	0	1
ppt169	none	relative	-28.3	-31	-25	sis	1	0	1
ppt170	none	relative	-28.3	-31	-25	sis	1	0	1
ppt171	none	relative	-28.3	-31	-25	sis	1	0	1
ppt172	none	relative	-28.3	-31	-25	sis	1	0	1
ppt173	none	relative	-28.3	-31	-25	sis	1	0	1
ppt174	none	relative	-28.3	-31	-25	sis	1	0	1
ppt175	none	relative	-28.3	-31	-25	sis	1	0	1
ppt176	none	relative	-28.3	-31	-25	sis	1	0	1
ppt177	none	relative	-28.3	-31	-25	sis	1	0	1
ppt178	none	relative	-28.3	-31	-25	sis	1	0	1
ppt179	none	relative	-28.3	-31	-25	sis	1	0	1
ppt180	none	relative	-28.3	-31	-25	sis	1	0	1
ppt181	none	relative	-28.3	-31	-25	sis	1	0	1
ppt182	none	relative	-28.3	-31	-25	sis	1	0	1
ppt183	none	relative	-28.3	-31	-25	sis	1	0	1
ppt184	none	relative	-28.3	-31	-25	sis	1	0	1
ppt185	none	relative	-28.3	-31	-25	sis	1	0	1
ppt186	none	relative	-28.3	-31	-25	sis	1	0	1
ppt187	none	relative	-28.3	-31	-25	sis	1	0	1
ppt188	none	relative	-28.3	-31	-25	sis	1	0	1
ppt189	none	relative	-28.3	-31	-25	sis	1	0	1
ppt190	none	relative	-28.3	-31	-25	sis	1	0	1
ppt191	none	relative	-28.3	-31	-25	sis	1	0	1
ppt192	none	relative	-28.3	-31	-25	sis	1	0	1
ppt193	none	relative	-28.3	-31	-25	sis	1	0	1
ppt194	none	relative	-28.3	-31	-25	sis	1	0	1
ppt195	none	relative	-28.3	-31	-25	sis	1	0	1
ppt196	none	relative	-28.3	-31	-25	sis	1	0	1
ppt197	none	relative	-28.3	-31	-25	sis	1	0	1
ppt198	none	relative	-28.3	-31	-25	sis	1	0	1
ppt199	none	relative	-28.3	-31	-25	sis	1	0	1
ppt200	none	relative	-28.3	-31	-25	sis	1	0	1
ppt201	none	relative	-28.3	-31	-25	sis	1	0	1
ppt202	none	relative	-28.3	-31	-25	sis	1	0	1
ppt203	none	relative	-28.3	-31	-25	sis	1	0	1
ppt204	none	relative	-28.3	-31	-25	sis	1	0	1
ppt205	none	relative	-28.3	-31	-25	sis	1	0	1
ppt206	none	relative	-28.3	-31	-25	sis	1	0	1
ppt207	none	relative	-28.3	-31	-25	sis	1	0	1
ppt208	none	relative	-28.3	-31	-25	sis	1	0	1
ppt209	none	relative	-28.3	-31	-25	sis	1	0	1
ppt210	none	relative	-28.3	-31	-25	sis	1	0	1
ppt211	none	relative	-28.3	-31	-25	sis	1	0	1
ppt212	none	relative	-28.3	-31	-25	sis	1	0	1
ppt213	none	relative	-28.3	-31	-25	sis	1	0	1
ppt214	none	relative	-28.3	-31	-25	sis	1	0	1
ppt215	none	relative	-28.3	-31	-25	sis	1	0	1
ppt216	none	relative	-28.3	-31	-25	sis	1	0	1
ppt217	none	relative	-28.3	-31	-25	sis	1	0	1
ppt218	none	relative	-28.3	-31	-25	sis	1	0	1
ppt219	none	relative	-28.3	-31	-25	sis	1	0	1
ppt220	none	relative	-28.3	-31	-25	sis	1	0	1
ppt221	none	relative	-28.3	-31	-25	sis	1	0	1
ppt222	none	relative	-28.3	-31	-25	sis	1	0	1
ppt223	none	relative	-28.3	-31	-25	sis	1	0	1
ppt224	none	relative	-28.3	-31	-25	sis	1	0	1
ppt225	none	relative	-28.3	-31	-25	sis	1	0	1
ppt226	none	relative	-28.3	-31	-25	sis	1	0	1
ppt227	none	relative	-28.3	-31	-25	sis	1	0	1
ppt228	none	relative	-28.3	-31	-25	sis	1	0	1
ppt229	none	relative	-28.3	-31	-25	sis	1	0	1
ppt230	none	relative	-28.3	-31	-25	sis	1	0	1
ppt231	none	relative	-28.3	-31	-25	sis	1	0	1
ppt232	none	relative	-28.3	-31	-25	sis	1	0	1
ppt233	none	relative	-28.3	-31	-25	sis	1	0	1
ppt234	none	relative	-28.3	-31	-25	sis	1	0	1
ppt235	none	relative	-28.3	-31	-25	sis	1	0	1
ppt236	none	relative	-28.3	-31	-25	sis	1	0	1
ppt237	none	relative	-28.3	-31	-25	sis	1	0	1
ppt238	none	relative	-28.3	-31	-25	sis	1	0	1
ppt239	none	relative	-28.3	-31	-25	sis	1	0	1
ppt240	none	relative	-28.3	-31	-25	sis	1	0	1
ppt241	none	relative	-28.3	-31	-25	sis	1	0	1
ppt242	none	relative	-28.3	-31	-25	sis	1	0	1
ppt243	none	relative	-28.3	-31	-25	sis	1	0	1
ppt244	none	relative	-28.3	-31	-25	sis	1	0	1
ppt245	none	relative	-28.3	-31	-25	sis	1	0	1
ppt246	none	relative	-28.3	-31	-25	sis	1	0	1
ppt247	none	relative	-28.3	-31	-25	sis	1	0	1
ppt248	none	relative	-28.3	-31	-25	sis	1	0	1
ppt249	none	relative	-28.3	-31	-25	sis	1	0	1
ppt250	none	relative	-28.3	-31	-25	sis	1	0	1
ppt251	none	relative	-28.3	-31	-25	sis	1	0	1
ppt252	none	relative	-28.3	-31	-25	sis	1	0	1
ppt253	none	relative	-28.3	-31	-25	sis	1	0	1
ppt254	none	relative	-28.3	-31	-25	sis	1	0	1
ppt255	none	relative	-28.3	-31	-25	sis	1	0	1
ppt256	none	relative	-28.3	-31	-25	sis	1	0	1
ppt257	none	relative	-28.3	-31	-25	sis	1	0	1
ppt258	none	relative	-28.3	-31	-25	sis	1	0	1
ppt259	none	relative	-28.3	-31	-25	sis	1	0	1
ppt260	none	relative	-28.3	-31	-25	sis	1	0	1
ppt261	none	relative	-28.3	-31	-25	sis	1	0	1
ppt262	none	relative	-28.3	-31	-25	sis	1	0	1
ppt263	none	relative	-28.3	-31	-25	sis	1	0	1
ppt264	none	relative	-28.3	-31	-25	sis	1	0	1
ppt265	none	relative	-28.3	-31	-25	sis	1	0	1
ppt266	none	relative	-28.3	-31	-25	sis	1	0	1
ppt267	none	relative	-28.3	-31	-25	sis	1	0	1
ppt268	none	relative	-28.3	-31	-25	sis	1	0	1
ppt269	none	relative	-28.3	-31	-25	sis	1	0	1
ppt270	none	relative	-28.3	-31	-25	sis	1	0	1
ppt271	none	relative	-28.3	-31	-25	sis	1	0	1
ppt272	none	relative	-28.3	-31	-25	sis	1	0	1
ppt273	none	relative	-28.3	-31	-25	sis	1	0	1
ppt274	none	relative	-28.3	-31	-25	sis	1	0	1
ppt275	none	relative	-28.3	-31	-25	sis	1	0	1
ppt276	none	relative	-28.3	-31	-25	sis	1	0	1
ppt277	none	relative	-28.3	-31	-25	sis	1	0	1
ppt278	none	relative	-28.3	-31	-25	sis	1	0	1
ppt279	none	relative	-28.3	-31	-25	sis	1	0	1
ppt280	none	relative	-28.3	-31	-25	sis	1	0	1
ppt281	none	relative	-28.3	-31	-25	sis	1	0	1
ppt282	none	relative	-28.3	-31	-25	sis	1	0	1
ppt283	none	relative	-28.3	-31	-25	sis	1	0	1
ppt284	none	relative	-28.3	-31	-25	sis	1	0	1
ppt285	none	relative	-28.3	-31	-25	sis	1	0	1
ppt286	none	relative	-28.3	-31	-25	sis	1	0	1
ppt287	none	relative	-28.3	-31	-25	sis	1	0	1
ppt288	none	relative	-28.3	-31	-25	sis	1	0	1
ppt289	none	relative	-28.3	-31	-25	sis	1	0	1
ppt290	none	relative	-28.3	-31	-25	sis	1	0	1
ppt291	none	relative	-28.3	-31	-25	sis	1	0	1
ppt292	none	relative	-28.3	-31	-25	sis	1	0	1
ppt293	none	relative	-28.3	-31	-25	sis	1	0	1
ppt294	none	relative	-28.3	-31	-25	sis	1	0	1
ppt295	none	relative	-28.3	-31	-25	sis	1	0	1
ppt296	none	relative	-28.3	-31	-25	sis	1	0	1
ppt297	none	relative	-28.3	-31	-25	sis	1	0	1
ppt298	none	relative	-28.3	-31	-25	sis	1	0	1
ppt299	none	relative	-28.3	-31	-25	sis	1	0	1
ppt300	none	relative	-28.3	-31	-25	sis	1	0	1
ppt301	none	relative	-28.3	-31	-25	sis	1	0	1
ppt302	none	relative	-28.3	-31	-25	sis	1	0	1
ppt303	none	relative	-28.3	-31	-25	sis	1	0	1
ppt304	none	relative	-28.3	-31	-25	sis	1	0	1
ppt305	none	relative	-28.3	-31	-25	sis	1	0	1
ppt306	none	relative	-28.3	-31	-25	sis	1	0	1
ppt307	none	relative	-28.3	-31	-25	sis	1	0	1
ppt308	none	relative	-28.3	-31	-25	sis	1	0	1
ppt309	none	relative	-28.3	-31	-25	sis	1	0	1
ppt310	none	relative	-28.3	-31	-25	sis	1	0	1
ppt311	none	relative	-28.3	-31	-25	sis	1	0	1
ppt312	none	relative	-28.3	-31	-25	sis	1	0	1
ppt313	none	relative	-28.3	-31	-25	sis	1	0	1
ppt314	none	relative	-28.3	-31	-25	sis	1	0	1
ppt315	none	relative	-28.3	-31	-25	sis	1	0	1
ppt316	none	relative	-28.3	-31	-25	sis	1	0	1
ppt317	none	relative	-28.3	-31	-25	sis	1	0	1
ppt318	none	relative	-28.3	-31	-25	sis	1	0	1
ppt319	none	relative	-28.3	-31	-25	sis	1	0	1
ppt320	none	relative	-28.3	-31	-25	sis	1	0	1
ppt321	none	relative	-28.3	-31	-25	sis	1	0	1
ppt322	none	relative	-28.3	-31	-25	sis	1	0	1
ppt323	none	relative	-28.3	-31	-25	sis	1	0	1
ppt324	none	relative	-28.3	-31	-25	sis	1	0	1
ppt325	none	relative	-28.3	-31	-25	sis	1	0	1
ppt326	none	relative	-28.3	-31	-25	sis	1	0	1
ppt327	none	relative	-28.3	-31	-25	sis	1	0	1
ppt328	none	relative	-28.3	-31	-25	sis	1	0	1
ppt329	none	relative	-28.3	-31	-25	sis	1	0	1
ppt330	none	relative	-28.3	-31	-25	sis	1	0	1
ppt331	none	relative	-28.3	-31	-25	sis	1	0	1
ppt332	none	relative	-28.3	-31	-25	sis	1	0	1
ppt333	none	relative	-28.3	-31	-25	sis	1	0	1
ppt334	none	relative	-28.3	-31	-25	sis	1	0	1
ppt335	none	relative	-28.3	-31	-25	sis	1	0	1
ppt336	none	relative	-28.3	-31	-25	sis	1	0	1
ppt337	none	relative	-28.3	-31	-25	sis	1	0	1
ppt338	none	relative	-28.3	-31	-25	sis	1	0	1
ppt339	none	relative	-28.3	-31	-25	sis	1	0	1
ppt340	none	relative	-28.3	-31	-25	sis	1	0	1
ppt341	none	relative	-28.3	-31	-25	sis	1	0	1
ppt342	none	relative	-28.3	-31	-25	sis	1	0	1
ppt343	none	relative	-28.3	-31	-25	sis	1	0	1
ppt344	none	relative	-28.3	-31	-25	sis	1	0	1
ppt345	none	relative	-28.3	-31	-25	sis	1	0	1
ppt346	none	relative	-28.3	-31	-25	sis	1	0	1
ppt347	none	relative	-28.3	-31	-25	sis	1	0	1
ppt348	none	relative	-28.3	-31	-25	sis	1	0	1
ppt349	none	relative	-28.3	-31	-25	sis	1	0	1
ppt350	none	relative	-28.3	-31	-25	sis	1	0	1
ppt351	none	relative	-28.3	-31	-25	sis	1	0	1
ppt352	none	relative	-28.3	-31	-25	sis	1	0	1
ppt353	none	relative	-28.3	-31	-25	sis	1	0	1
ppt354	none	relative	-28.3	-31	-25	sis	1	0	1
ppt355	none	relative	-28.3	-31	-25	sis	1	0	1
ppt356	none	relative	-28.3	-31	-25	sis	1	0	1
ppt357	none	relative	-28.3	-31	-25	sis	1	0	1
ppt358	none	relative	-28.3	-31	-25	sis	1	0	1
ppt359	none	relative	-28.3	-31	-25	sis	1	0	1
ppt360	none	relative	-28.3	-31	-25	sis	1	0	1
ppt361	none	relative	-28.3	-31	-25	sis	1	0	1
ppt362	none	relative	-28.3	-31	-25	sis	1	0	1
ppt363	none	relative	-28.3	-31	-25	sis	1	0	1
ppt364	none	relative	-28.3	-31	-25	sis	1	0	1
ppt365	none	relative	-28.3	-31	-25	sis	1	0	1
ppt366	none	relative	-28.3	-31	-25	sis	1	0	1
ppt367	none	relative	-28.3	-31	-25	sis	1	0	1
ppt368	none	relative	-28.3	-31	-25	sis	1	0	1
ppt369	none	relative	-28.3	-31	-25	sis	1	0	1
ppt370	none	relative	-28.3	-31	-25	sis	1	0	1
ppt371	none	relative	-28.3	-31	-25	sis	1	0	1
ppt372	none	relative	-28.3	-31	-25	sis	1	0	1
ppt373	none	relative	-28.3	-31	-25	sis	1	0	1
ppt374	none	relative	-28.3	-31	-25	sis	1	0	1
ppt375	none	relative	-28.3	-31	-25	sis	1	0	1
ppt376	none	relative	-28.3	-31	-25	sis	1	0	1
ppt377	none	relative	-28.3	-31	-25	sis	1	0	1
ppt378	none	relative	-28.3	-31	-25	sis	1	0	1
ppt379	none	relative	-28.3	-31	-25	sis	1	0	1
ppt380	none	relative	-28.3	-31	-25	sis	1	0	1
ppt381	none	relative	-28.3	-31	-25	sis	1	0	1
ppt382	none	relative	-28.3	-31	-25	sis	1	0	1
ppt383	none	relative	-28.3	-31	-25	sis	1	0	1
ppt384	none	relative	-28.3	-31	-25	sis	1	0	1
ppt385	none	relative	-28.3	-31	-25	sis	1	0	1
ppt386	none	relative	-28.3	-31	-25	sis	1	0	1
ppt387	none	relative	-28.3	-31	-25	sis	1	0	1
ppt388	none	relative	-28.3	-31	-25	sis	1	0	1
ppt389	none	relative	-28.3	-31	-25	sis	1	0	1
ppt390	none	relative	-28.3	-31	-25	sis	1	0	1
ppt391	none	relative	-28.3	-31	-25	sis	1	0	1
ppt392	none	relative	-28.3	-31	-25	sis	1	0	1
ppt393	none	relative	-28.3	-31	-25	sis	1	0	1
ppt394	none	relative	-28.3	-31	-25	sis	1	0	1
ppt395	none	relative	-28.3	-31	-25	sis	1	0	1
ppt396	none	relative	-28.3	-31	-25	sis	1	0	1
ppt397	none	relative	-28.3	-31	-25	sis	1	0	1
ppt398	none	relative	-28.3	-31	-25	sis	1	0	1
ppt399	none	relative	-28.3	-31	-25	sis	1	0	1
ppt400	none	relative	-28.3	-31	-25	sis	1	0	1
ppt401	none	relative	-28.3	-31	-25	sis	1	0	1
ppt402	none	relative	-28.3	-31	-25	sis	1	0	1
ppt403	none	relative	-28.3	-31	-25	sis	1	0	1
ppt404	none	relative	-28.3	-31	-25	sis	1	0	1
ppt405	none	relative	-28.3	-31	-25	sis	1	0	1
ppt406	none	relative	-28.3	-31	-25	sis	1	0	1
ppt407	none	relative	-28.3	-31	-25	sis	1	0	1
ppt408	none	relative	-28.3	-31	-25	sis	1	0	1
ppt409	none	relative	-28.3	-31	-25	sis	1	0	1
ppt410	none	relative	-28.3	-31	-25	sis	1	0	1
ppt411	none	relative	-28.3	-31	-25	sis	1	0	1
ppt412	none	relative	-28.3	-31	-25	sis	1	0	1
ppt413	none	relative	-28.3	-31	-25	sis	1	0	1
ppt414	none	relative	-28.3	-31	-25	sis	1	0	1
ppt415	none	relative	-28.3	-31	-25	sis	1	0	1
ppt416	none	relative	-28.3	-31	-25	sis	1	0	1
ppt417	none	relative	-28.3	-31	-25	sis	1	0	1
ppt418	none	relative	-28.3	-31	-25	sis	1	0	1
ppt419	none	relative	-28.3	-31	-25	sis	1	0	1
ppt420	none	relative	-28.3	-31	-25	sis	1	0	1
ppt421	none	relative	-28.3	-31	-25	sis	1	0	1
ppt422	none	relative	-28.3	-31	-25	sis	1	0	1
ppt423	none	relative	-28.3	-31	-25	sis	1	0	1
ppt424	none	relative	-28.3	-31	-25	sis	1	0	1
ppt425	none	relative	-28.3	-31	-25	sis	1	0	1
ppt426	none	relative	-28.3	-31	-25	sis	1	0	1
ppt427	none	relative	-28.3	-31	-25	sis	1	0	1
ppt428	none	relative	-28.3	-31	-25	sis	1	0	1
ppt429	none	relative	-28.3	-31	-25	sis	1	0	1
ppt430	none	relative	-28.3	-31	-25	sis	1	0	1
ppt431	none	relative	-28.3	-31	-25	sis	1	0	1
ppt432	none	relative	-28.3	-31	-25	sis	1	0	1
ppt433	none	relative	-28.3	-31	-25	sis	1	0	1
ppt434	none	relative	-28.3	-31	-25	sis	1	0	1
ppt435	none	relative	-28.3	-31	-25	sis	1	0	1
ppt436	none	relative	-28.3	-31	-25	sis	1	0	1
ppt437	none	relative	-28.3	-31	-25	sis	1	0	1
ppt438	none	relative	-28.3	-31	-25	sis	1	0	1
ppt439	none	relative	-28.3	-31	-25	sis	1	0	1
ppt440	none	relative	-28.3	-31	-25	sis	1	0	1
ppt441	none	relative	-28.3	-31	-25	sis	1	0	1
ppt442	none	relative	-28.3	-31	-25	sis	1	0	1
ppt443	none	relative	-28.3	-31	-25	sis	1	0	1
ppt444	none	relative	-28.3	-31	-25	sis	1	0	1
ppt445	none	relative	-28.3	-31	-25	sis	1	0	1
ppt446	none	relative	-28.3	-31	-25	sis	1	0	1
ppt447	none	relative	-28.3	-31	-25	sis	1	0	1
ppt448	none	relative	-28.3	-31	-25	sis	1	0	1
ppt449	none	relative	-28.3	-31	-25	sis	1	0	1
ppt450	none	relative	-28.3	-31	-25	sis	1	0	1
ppt451	none	relative	-28.3	-31	-25	sis	1	0	1
ppt452	none	relative	-28.3	-31	-25	sis	1	0	1
ppt453	none	relative	-28.3	-31	-25	sis	1	0	1
ppt454	none	relative	-28.3	-31	-25	sis	1	0	1
ppt455	none	relative	-28.3	-31	-25	sis	1	0	1
ppt456	none	relative	-28.3	-31	-25	sis	1	0	1
ppt457	none	relative	-28.3	-31	-25	sis	1	0	1
ppt458	none	relative	-28.3	-31	-25	sis	1	0	1
ppt459	none	relative	-28.3	-31	-25	sis	1	0	1
ppt460	none	relative	-28.3	-31	-25	sis	1	0	1
ppt461	none	relative	-28.3	-31	-25	sis	1	0	1
ppt462	none	relative	-28.3	-31	-25	sis	1	0	1
ppt463	none	relative	-28.3	-31	-25	sis	1	0	1
ppt464	none	relative	-28.3	-31	-25	sis	1	0	1
ppt465	none	relative	-28.3	-31	-25	sis	1	0	1
ppt466	none	relative	-28.3	-31	-25	sis	1	0	1
ppt467	none	relative	-28.3	-31	-25	sis	1	0	1
ppt468	none	relative	-28.3	-31	-25	sis	1	0	1
ppt469	none	relative	-28.3	-31	-25	sis	1	0	1
ppt470	none	relative	-28.3	-31	-25	sis	1	0	1
ppt471	none	relative	-28.3	-31	-25	sis	1	0	1
ppt472	none	relative	-28.3	-31	-25	sis	1	0	1
ppt473	none	relative	-28.3	-31	-25	sis	1	0	1
ppt474	none	relative	-28.3	-31	-25	sis	1	0	1
ppt475	none	relative	-28.3	-31	-25	sis	1	0	1
ppt476	none	relative	-28.3	-31	-25	sis	1	0	1
ppt477	none	relative	-28.3	-31	-25	sis	1	0	1
ppt478	none	relative	-28.3	-31	-25	sis	1	0	1
ppt479	none	relative	-28.3	-31	-25	sis	1	0	1
ppt480	none	relative	-28.3	-31	-25	sis	1	0	1
ppt481	none	relative	-28.3	-31	-25	sis	1	0	1
ppt482	none	relative	-28.3	-31	-25	sis	1	0	1
ppt483	none	relative	-28.3	-31	-25	sis	1	0	1
ppt484	none	relative	-28.3	-31	-25	sis	1	0	1
ppt485	none	relative	-28.3	-31	-25	sis	1	0	1
ppt486	none	relative	-28.3	-31	-25	sis	1	0	1
ppt487	none	relative	-28.3	-31	-25	sis	1	0	1
ppt488	none	relative	-28.3	-31	-25	sis	1	0	1
ppt489	none	relative	-28.3	-31	-25	sis	1	0	1
ppt490	none	relative	-28.3	-31	-25	sis	1	0	1
ppt491	none	relative	-28.3	-31	-25	sis	1	0	1
ppt492	none	relative	-28.3	-31	-25	sis	1	0	1
ppt493	none	relative	-28.3	-31	-25	sis	1	0	1
ppt494	none	relative	-28.3	-31	-25	sis	1	0	1
ppt495	none	relative	-28.3	-31	-25	sis	1	0	1
ppt496	none	relative	-28.3	-31	-25	sis	1	0	1
ppt497	none	relative	-28.3	-31	-25	sis	1	0	1
ppt498	none	relative	-28.3	-31	-25	sis	1	0	1
ppt499	none	relative	-28.3	-31	-25	sis	1	0	1
ppt500	none	relative	-28.3	-31	-25	sis	1	0	1
ppt501	none	relative	-28.3	-31	-25	sis	1	0	1
ppt502	none	relative	-28.3	-31	-25	sis	1	0	1
ppt503	none	relative	-28.3	-31	-25	sis	1	0	1
ppt504	none	relative	-28.3	-31	-25	sis	1	0	1
ppt505	none	relative	-28.3	-31	-25	sis	1	0	1
ppt506	none	relative	-28.3	-31	-25	sis	1	0	1
ppt507	none	relative	-28.3	-31	-25	sis	1	0	1
ppt508	none	relative	-28.3	-31	-25	sis	1	0	1
ppt509	none	relative	-28.3	-31	-25	sis	1	0	1
ppt510	none	relative	-28.3	-31	-25	sis	1	0	1
ppt511	none	relative	-28.3	-31	-25	sis	1	0	1
ppt512	none	relative	-28.3	-31	-25	sis	1	0	1
ppt513	none	relative	-28.3	-31	-25	sis	1	0	1
ppt514	none	relative	-28.3	-31	-25	sis	1	0	1
ppt515	none	relative	-28.3	-31	-25	sis	1	0	1
ppt516	none	relative	-28.3	-31	-25	sis	1	0	1
ppt517	none	relative	-28.3	-31	-25	sis	1	0	1
ppt518	none	relative	-28.3	-31	-25	sis	1	0	1
ppt519	none	relative	-28.3	-31	-25	sis	1	0	1
ppt520	none	relative	-28.3	-31	-25	sis	1	0	1
ppt521	none	relative	-28.3	-31	-25	sis	1	0	1
ppt522	none	relative	-28.3	-31	-25	sis	1	0	1
ppt523	none	relative	-28.3	-31	-25	sis	1	0	1
ppt524	none	relative	-28.3	-31	-25	sis	1	0	1
ppt525	none	relative	-28.3	-31	-25	sis	1	0	1
ppt526	none	relative	-28.3	-31	-25	sis	1	0	1
ppt527	none	relative	-28.3	-31	-25	sis	1	0	1
ppt528	none	relative	-28.3	-31	-25	sis	1	0	1
ppt529	none	relative	-28.3	-31	-25	sis	1	0	1
ppt530	none	relative	-28.3	-31	-25	sis	1	0	1
ppt531	none	relative	-28.3	-31	-25	sis	1	0	1
ppt532	none	relative	-28.3	-31	-25	sis	1	0	1
ppt533	none	relative	-28.3	-31	-25	sis	1	0	1
ppt534	none	relative	-28.3	-31	-25	sis	1	0	1
ppt535	none	relative	-28.3	-31	-25	sis	1	0	1
ppt536	none	relative	-28.3	-31	-25	sis	1	0	1
ppt537	none	relative	-28.3	-31	-25	sis	1	0	1
ppt538	none	relative	-28.3	-31	-25	sis	1	0	1
ppt539	none	relative	-28.3	-31	-25	sis	1	0	1
ppt540	none	relative	-28.3	-31	-25	sis	1	0	1
ppt541	none	relative	-28.3	-31	-25	sis	1	0	1
ppt542	none	relative	-28.3	-31	-25	sis	1	0	1
ppt543	none	relative	-28.3	-31	-25	sis	1	0	1
ppt544	none	relative	-28.3	-31	-25	sis	1	0	1
ppt545	none	relative	-28.3	-31	-25	sis	1	0	1
ppt546	none	relative	-28.3	-31	-25	sis	1	0	1
ppt547	none	relative	-28.3	-31	-25	sis	1	0	1
ppt548	none	relative	-28.3	-31	-25	sis	1	0	1
ppt549	none	relative	-28.3	-31	-25	sis	1	0	1
ppt550	none	relative	-28.3	-31	-25	sis	1	0	1
ppt551	none	relative	-28.3	-31	-25	sis	1	0	1
ppt552	none	relative	-28.3	-31	-25	sis	1	0	1
ppt553	none	relative	-28.3	-31	-25	sis	1	0	1
ppt554	none	relative	-28.3	-31	-25	sis	1	0	1
ppt555	none	relative	-28.3	-31	-25	sis	1	0	1
ppt556	none	relative	-28.3	-31	-25	sis	1	0	1
ppt557	none	relative	-28.3	-31	-25	sis	1	0	1
ppt558	none	relative	-28.3	-31	-25	sis	1	0	1
ppt559	none	relative	-28.3	-31	-25	sis	1	0	1
ppt560	none	relative	-28.3	-31	-25	sis	1	0	1
ppt561	none	relative	-28.3	-31	-25	sis	1	0	1
ppt562	none	relative	-28.3	-31	-25	sis	1	0	1
ppt563	none	relative	-28.3	-31	-25	sis	1	0	1
ppt564	none	relative	-28.3	-31	-25	sis	1	0	1
ppt565	none	relative	-28.3	-31	-25	sis	1	0	1
ppt566	none	relative	-28.3	-31	-25	sis	1	0	1
ppt567	none	relative	-28.3	-31	-25	sis	1	0	1
ppt568	none	relative	-28.3	-31	-25	sis	1	0	1
ppt569	none	relative	-28.3	-31	-25	sis	1	0	1
ppt570	none	relative	-28.3	-31	-25	sis	1	0	1
ppt571	none	relative	-28.3	-31	-25	sis	1	0	1
ppt572	none	relative	-28.3	-31	-25	sis	1	0	1
ppt573	none	relative	-28.3	-31	-25	sis	1	0	1
ppt574	none	relative	-28.3	-31	-25	sis	1	0	1
ppt575	none	relative	-28.3	-31	-25	sis	1	0	1
ppt576	none	relative	-28.3	-31	-25	sis	1	0	1
ppt577	none	relative	-28.3	-31	-25	sis	1	0	1
ppt578	none	relative	-28.3	-31	-25	sis	1	0	1
ppt579	none	relative	-28.3	-31	-25	sis	1	0	1
ppt580	none	relative	-28.3	-31	-25	sis	1	0	1
ppt581	none	relative	-28.3	-31	-25	sis	1	0	1
ppt582	none	relative	-28.3	-31	-25	sis	1	0	1
ppt583	none	relative	-28.3	-31	-25	sis	1	0	1
ppt584	none	relative	-28.3	-31	-25	sis	1	0	1
ppt585	none	relative	-28.3	-31	-25	sis	1	0	1
ppt586	none	relative	-28.3	-31	-25	sis	1	0	1
ppt587	none	relative	-28.3	-31	-25	sis	1	0	1
ppt588	none	relative	-28.3	-31	-25	sis	1	0	1
ppt589	none	relative	-28.3	-31	-25	sis	1	0	1
ppt590	none	relative	-28.3	-31	-25	sis	1	0	1
ppt591	none	relative	-28.3	-31	-25	sis	1	0	1
ppt592	none	relative	-28.3	-31	-25	sis	1	0	1
ppt593	none	relative	-28.3	-31	-25	sis	1	0	1
ppt594	none	relative	-28.3	-31	-25	sis	1	0	1
ppt595	none	relative	-28.3	-31	-25	sis	1	0	1
ppt596	none	relative	-28.3	-31	-25	sis	1	0	1
ppt597	none	relative	-28.3	-31	-25	sis	1	0	1
ppt598	none	relative	-28.3	-31	-25	sis	1	0	1
ppt599	none	relative	-28.3	-31	-25	sis	1	0	1
ppt600	none	relative	-28.3	-31	-25	sis	1	0	1
ppt601	none	relative	-28.3	-31	-25	sis	1	0	1
ppt602	none	relative	-28.3	-31	-25	sis	1	0	1
ppt603	none	relative	-28.3	-31	-25	sis	1	0	1
ppt604	none	relative	-28.3	-31	-25	sis	1	0	1
ppt605	none	relative	-28.3	-31	-25	sis	1	0	1
ppt606	none	relative	-28.3	-31	-25	sis	1	0	1
ppt607	none	relative	-28.3	-31	-25	sis	1	0	1
ppt608	none	relative	-28.3	-31	-25	sis	1	0	1
ppt609	none	relative	-28.3	-31	-25	sis	1	0	1
ppt610	none	relative	-28.3	-31	-25	sis	1	0	1
ppt611	none	relative	-28.3	-31	-25	sis	1	0	1
ppt612	none	relative	-28.3	-31	-25	sis	1	0	1
ppt613	none	relative	-28.3	-31	-25	sis	1	0	1
ppt614	none	relative	-28.3	-31	-25	sis	1	0	1
ppt615	none	relative	-28.3	-31	-25	sis	1	0	1
ppt616	none	relative	-28.3	-31	-25	sis	1	0	1
ppt617	none	relative	-28.3	-31	-25	sis	1	0	1
ppt618	none	relative	-28.3	-31	-25	sis	1	0	1
ppt619	none	relative	-28.3	-31	-25	sis	1	0	1
ppt620	none	relative	-28.3	-31	-25	sis	1	0	1
ppt621	none	relative	-28.3	-31	-25	sis	1	0	1
ppt622	none	relative	-28.3	-31	-25	sis	1	0	1
ppt623	none	relative	-28.3	-31	-25	sis	1	0	1
ppt624	none	relative	-28.3	-31	-25	sis	1	0	1
ppt625	none	relative	-28.3	-31	-25	sis	1	0	1
ppt626	none	relative	-28.3	-31	-25	sis	1	0	1
ppt627	none	relative	-28.3	-31	-25	sis	1	0	1
ppt628	none	relative	-28.3	-31	-25	sis	1	0	1
ppt629	none	relative	-28.3	-31	-25	sis	1	0	1
ppt630	none	relative	-28.3	-31	-25	sis	1	0	1
ppt631	none	relative	-28.3	-31	-25	sis	1	0	1
ppt632	none	relative	-28.3	-31	-25	sis	1	0	1
ppt633	none	relative	-28.3	-31	-25	sis	1	0	1
ppt634	none	relative	-28.3	-31	-25	sis	1	0	1
ppt635	none	relative	-28.3	-31	-25	sis	1	0	1
ppt636	none	relative	-28.3	-31	-25	sis	1	0	1
ppt637	none	relative	-28.3	-31	-25	sis	1	0	1
ppt638	none	relative	-28.3	-31	-25	sis	1	0	1
ppt639	none	relative	-28.3	-31	-25	sis	1	0	1
ppt640	none	relative	-28.3	-31	-25	sis	1	0	1
ppt641	none	relative	-28.3	-31	-25	sis	1	0	1
ppt642	none	relative	-28.3	-31	-25	sis	1	0	1
ppt643	none	relative	-28.3	-31	-25	sis	1	0	1